/*--------------------------------*- C++ -*----------------------------------*\
| =========                 |                                                 |
| \\      /  F ield         | OpenFOAM Extend Project: Open Source CFD        |
|  \\    /   O peration     | Version:  1.6-ext                               |
|   \\  /    A nd           | Web:      www.extend-project.de                 |
|    \\/     M anipulation  |                                                 |
\*---------------------------------------------------------------------------*/
FoamFile
{
    version     2.0;
    format      ascii;
    class       dictionary;
    object      fvSolution;
}
// * * * * * * * * * * * * * * * * * * * * * * * * * * * * * * * * * * * * * //

solvers
{
    p
    {
//         solver           smoothSolver;
//         smoother         GaussSeidel;
//         nSweeps          1;

        solver           BiCGStab;
        preconditioner   DILU;

//         solver           CG;
//         preconditioner   DIC;

        minIter          1;
        maxIter          1000;
        tolerance        1e-10;
        relTol           0;
    }

    U
    {
        solver           smoothSolver;
        smoother         GaussSeidel;
        nSweeps          1;

//         solver           BiCGStab;
//         preconditioner   DILU;

        minIter          1;
        maxIter          1000;
        tolerance        1e-7;
        relTol           0;
    }
    k
    {
        solver           PBiCG;
        preconditioner   DILU;
        tolerance        1e-07;
        relTol           0;
    }
    epsilon
    {
        solver           PBiCG;
        preconditioner   DILU;
        tolerance        1e-07;
        relTol           0;
    }
}


SIMPLE
{
    nNonOrthogonalCorrectors 0;

    pRefCell 0;
    pRefValue 0;
}


relaxationFactors
{
    p               0.3;
    U               0.7;
    k               0.7;
    epsilon         0.7;
    R               0.7;
    nuTilda         0.7;
}


// ************************************************************************* //
