/*--------------------------------*- C++ -*----------------------------------*\
| =========                 |                                                 |
| \\      /  F ield         | OpenFOAM: The Open Source CFD Toolbox           |
|  \\    /   O peration     | Version:  2.3.x                                 |
|   \\  /    A nd           | Web:      www.OpenFOAM.org                      |
|    \\/     M anipulation  |                                                 |
\*---------------------------------------------------------------------------*/
FoamFile
{
    version     2.0;
    format      ascii;
    class       polyBoundaryMesh;
    location    "constant/polyMesh";
    object      boundary;
}
// * * * * * * * * * * * * * * * * * * * * * * * * * * * * * * * * * * * * * //

3
(
    propellerFarfield
    {
        type            patch;
        nFaces          10400;
        startFace       1049955;
    }
    propeller
    {
        type            wall;
        inGroups        1(wall);
        nFaces          60982;
        startFace       1060355;
    }
    shaft
    {
        type            wall;
        inGroups        1(wall);
        nFaces          1766;
        startFace       1121337;
    }
)

// ************************************************************************* //
