/*--------------------------------*- C++ -*----------------------------------*\
| =========                 |                                                 |
| \\      /  F ield         | foam-extend: Open Source CFD                    |
|  \\    /   O peration     | Version:     3.2                                |
|   \\  /    A nd           | Web:         http://www.foam-extend.org         |
|    \\/     M anipulation  | For copyright notice see file Copyright         |
\*---------------------------------------------------------------------------*/
FoamFile
{
    version     2.0;
    format      ascii;
    class       dictionary;
    object      controlDict;
}
// * * * * * * * * * * * * * * * * * * * * * * * * * * * * * * * * * * * * * //

application     potentialDyMOversetFoam;

startFrom       latestTime;

startTime       0;

stopAt          endTime;

endTime         0.038; // Approx 1 period (potential flow)

deltaT          0.0005; // Approx 5 degrees per time step (potential flow)

writeControl    timeStep;

writeInterval   1;

purgeWrite      0;

writeFormat     ascii;

writePrecision  10;

writeCompression compressed;

timeFormat      general;

timePrecision   6;

runTimeModifiable yes;

adjustTimeStep    no;
maxAlphaCo        1;
maxCo             1;

OptimisationSwitches
{
    commsType blocking;

    // Note: scheduled comms not working properly due to call to
    // oversetFvPatchField::initEvaluate() after AmulCore
}

DebugSwitches
{
    // Note: uncomment for fringe and global overset flux balance run time
    // information

//    oversetMesh 1;
}

libs
(
    "libdynamicMesh.so"
    "libdynamicFvMesh.so"
    "liboversetMesh.so"
    "liboversetDynamicFvMesh.so"
);

// ************************************************************************* //
