/*--------------------------------*- C++ -*----------------------------------*\
| =========                 |                                                 |
| \\      /  F ield         | foam-extend: Open Source CFD                    |
|  \\    /   O peration     | Version:     3.2                                |
|   \\  /    A nd           | Web:         http://www.foam-extend.org         |
|    \\/     M anipulation  | For copyright notice see file Copyright         |
\*---------------------------------------------------------------------------*/
FoamFile
{
    version     2.0;
    format      ascii;
    class       dictionary;
    object      fvSchemes;
}
// * * * * * * * * * * * * * * * * * * * * * * * * * * * * * * * * * * * * * //

ddtSchemes
{
    default steadyState;
}

gradSchemes
{
    default         Gauss linear;
}

divSchemes
{
    default         none;
    div(phi,U)      Gauss upwind;
//    div(phi,U)      Gauss linearUpwind Gauss linear;
    div(phi,k)      Gauss upwind;
    div(phi,omega)  Gauss upwind;

    div((nuEff*dev(grad(U).T()))) Gauss linear;
}

laplacianSchemes
{
   default         Gauss linear corrected;
//    default         Gauss linear uncorrected;

   laplacian(DkEff,k)                  Gauss linear limited 0.5;
   laplacian(DomegaEff,omega)          Gauss linear limited 0.5;
}

interpolationSchemes
{
    default         linear;
}

snGradSchemes
{
    default         limited 0.5;
}

fluxRequired
{
    p;
}

// ************************************************************************* //
