/*--------------------------------*- C++ -*----------------------------------*\
| =========                 |                                                 |
| \\      /  F ield         | foam-extend: Open Source CFD                    |
|  \\    /   O peration     | Version:     3.2                                |
|   \\  /    A nd           | Web:         http://www.foam-extend.org         |
|    \\/     M anipulation  | For copyright notice see file Copyright         |
\*---------------------------------------------------------------------------*/
FoamFile
{
    version     2.0;
    format      ascii;
    class       dictionary;
    object      dynamicMeshDict;
}
// * * * * * * * * * * * * * * * * * * * * * * * * * * * * * * * * * * * * * //

dynamicFvMesh   oversetSolidBodyMotionFvMesh;

oversetSolidBodyMotionFvMeshCoeffs
{
    motionFunctions
    (
        propeller
        {
            movingZones (propeller);

            solidBodyMotionFunction     SKA;
            SKACoeffs
            {
                CofG             (0.05 0 0);
                timeDataFileName "constant/motion.dat";
            }
        }
    );
}


// ************************************************************************* //
