/*--------------------------------*- C++ -*----------------------------------*\
| =========                 |                                                 |
| \\      /  F ield         | foam-extend: Open Source CFD                    |
|  \\    /   O peration     | Version:  1.4                                   |
|   \\  /    A nd           | Web:      http://www.openfoam.org               |
|    \\/     M anipulation  | For copyright notice see file Copyright         |
\*---------------------------------------------------------------------------*/

FoamFile
{
    version         2.0;
    format          ascii;
    class           dictionary;
    object          oversetMeshDict;
}

// * * * * * * * * * * * * * * * * * * * * * * * * * * * * * * * * * * * * * //

interpolation
{
    type inverseDistance;
}

// Names or patches that determine hole cells
holePatches  ();

regions
(
    background
    {
        // Donor regions for background zone
        donorRegions ( propeller );

        fringe
        {
            type faceCells;
            patches ( propellerHole );
        }
    }

    propeller
    {
        // Donor regions for propeller zone
        donorRegions ( background );

        fringe
        {
            type faceCells;
            patches ( propellerFarfield );
        }
    }
);


// ************************************************************************* //
