/*--------------------------------*- C++ -*----------------------------------*\
| =========                 |                                                 |
| \\      /  F ield         | OpenFOAM Extend Project: Open source CFD        |
|  \\    /   O peration     | Version:  3.1-ext                               |
|   \\  /    A nd           | Web:      www.extend-project.de                 |
|    \\/     M anipulation  |                                                 |
\*---------------------------------------------------------------------------*/
FoamFile
{
    version         2.0;
    format          ascii;
    class           dictionary;
    location        "constant";
    object          transportProperties;
}
// * * * * * * * * * * * * * * * * * * * * * * * * * * * * * * * * * * * * * //

transportModel  Newtonian;
rho             rho [1 -3 0 0 0 0 0] 999.1;
nu              nu [0 2 -1 0 0 0 0] 1.139e-6;

phase1
{
    transportModel  Newtonian;
    rho             rho [1 -3 0 0 0 0 0] 999.1;
    nu              nu [0 2 -1 0 0 0 0] 1.139e-6;
}

phase2
{
    transportModel  Newtonian;
    rho             rho [1 -3 0 0 0 0 0] 1.2;
    nu              nu [0 2 -1 0 0 0 0] 1.54e-05;
}

sigma           sigma [1 0 -2 0 0 0 0] 0.0;


// ************************************************************************* //
