/*--------------------------------*- C++ -*----------------------------------*\
| =========                 |                                                 |
| \\      /  F ield         | OpenFOAM Extend Project: Open Source CFD        |
|  \\    /   O peration     | Version:  1.6-ext                               |
|   \\  /    A nd           | Web:      www.extend-project.de                 |
|    \\/     M anipulation  |                                                 |
\*---------------------------------------------------------------------------*/
FoamFile
{
    version     2.0;
    format      ascii;
    class       dictionary;
    object      blockMeshDict;
}
// * * * * * * * * * * * * * * * * * * * * * * * * * * * * * * * * * * * * * //

convertToMeters 0.01;

vertices
(
    // Inlet
    (-5 -2 -0.1)
    ( 1 -2 -0.1)
    (-5  2 -0.1)
    ( 1  2 -0.1)

    (-5 -2  0.1)
    ( 1 -2  0.1)
    (-5  2  0.1)
    ( 1  2  0.1)

    // Outlet
    ( 0 -4  -0.1)
    (10 -4  -0.1)
    ( 0  4  -0.1)
    (10  4  -0.1)

    ( 0 -4   0.1)
    (10 -4   0.1)
    ( 0  4   0.1)
    (10  4   0.1)
);

blocks
(
    // Inlet
    hex (0 1 3 2 4 5 7 6) inlet (20 10 1) simpleGrading (1 1 1)

    // Outlet
    hex (8 9 11 10 12 13 15 14) outlet (50 30 1) simpleGrading (1 1 1)
);

edges
();

patches
(
    patch inlet
    (
        (0 4 6 2)
    )
    patch leftOut
    (
        (1 3 7 5)
    )
    wall inletWalls
    (
        (0 1 5 4)
        (2 6 7 3)
    )
    wall outlet
    (
        (9 11 15 13)
    )

    wall outletWalls
    (
        (8 9 13 12)
        (10 14 15 11)
        (8 12 14 10)
    )

    empty frontAndBack
    (
        (0 2 3 1)
        (4 5 7 6)

        (8 10 11 9)
        (12 13 15 14)
    )
);

mergePatchPairs
(
);

// ************************************************************************* //
