/*--------------------------------*- C++ -*----------------------------------*\
| =========                 |                                                 |
| \\      /  F ield         | foam-extend: Open Source CFD                    |
|  \\    /   O peration     | Version:     3.1                                |
|   \\  /    A nd           | Web:         http://www.extend-project.de       |
|    \\/     M anipulation  |                                                 |
\*---------------------------------------------------------------------------*/
FoamFile
{
    version     2.0;
    format      ascii;
    class       dictionary;
    object      blockMeshDict;
}
// * * * * * * * * * * * * * * * * * * * * * * * * * * * * * * * * * * * * * //

ConvertToMeters 1;


vertices
(

// FIRST x PLANE


(   0.78000000  -0.49497475 0.49497475  )
(   0.78000000  0.49497475  0.49497475  )
(   0.78000000  -0.05692210 0.05692210  )
(   0.78000000  0.05692210  0.05692210  )
(   0.78000000  -0.00993485 0.00993485  )
(   0.78000000  0.00993485  0.00993485  )
(   0.78000000  -0.00562000 0.00562000  )
(   0.78000000  0.00562000  0.00562000  )
(   0.78000000  -0.00562000 -0.00562000 )
(   0.78000000  0.00562000  -0.00562000 )
(   0.78000000  -0.00993485 -0.00993485 )
(   0.78000000  0.00993485  -0.00993485 )
(   0.78000000  -0.05692210 -0.05692210 )
(   0.78000000  0.05692210  -0.05692210 )
(   0.78000000  -0.49497475 -0.49497475 )
(   0.78000000  0.49497475  -0.49497475 )


// SECOND x PLANE


(   0.08000000  -0.49497475 0.49497475  )
(   0.08000000  0.49497475  0.49497475  )
(   0.08000000  -0.05692210 0.05692210  )
(   0.08000000  0.05692210  0.05692210  )
(   0.08000000  -0.00993485 0.00993485  )
(   0.08000000  0.00993485  0.00993485  )
(   0.08000000  -0.00562000 0.00562000  )
(   0.08000000  0.00562000  0.00562000  )
(   0.08000000  -0.00562000 -0.00562000 )
(   0.08000000  0.00562000  -0.00562000 )
(   0.08000000  -0.00993485 -0.00993485 )
(   0.08000000  0.00993485  -0.00993485 )
(   0.08000000  -0.05692210 -0.05692210 )
(   0.08000000  0.05692210  -0.05692210 )
(   0.08000000  -0.49497475 -0.49497475 )
(   0.08000000  0.49497475  -0.49497475 )



// THIRD x PLANE


(   0.00000000  -0.49497475 0.49497475  )
(   0.00000000  0.49497475  0.49497475  )
(   0.00000000  -0.05692210 0.05692210  )
(   0.00000000  0.05692210  0.05692210  )
(   0.00000000  -0.00993485 0.00993485  )
(   0.00000000  0.00993485  0.00993485  )
(   0.00000000  -0.00562000 0.00562000  )
(   0.00000000  0.00562000  0.00562000  )
(   0.00000000  -0.00562000 -0.00562000 )
(   0.00000000  0.00562000  -0.00562000 )
(   0.00000000  -0.00993485 -0.00993485 )
(   0.00000000  0.00993485  -0.00993485 )
(   0.00000000  -0.05692210 -0.05692210 )
(   0.00000000  0.05692210  -0.05692210 )
(   0.00000000  -0.49497475 -0.49497475 )
(   0.00000000  0.49497475  -0.49497475 )



// FOURTH x PLANE


(   -1.40000000 -0.49497475 0.49497475  )
(   -1.40000000 0.49497475  0.49497475  )
(   -1.40000000 -0.05692210 0.05692210  )
(   -1.40000000 0.05692210  0.05692210  )
(   -1.40000000 -0.00993485 0.00993485  )
(   -1.40000000 0.00993485  0.00993485  )
(   -1.40000000 -0.00562000 0.00562000  )
(   -1.40000000 0.00562000  0.00562000  )
(   -1.40000000 -0.00562000 -0.00562000 )
(   -1.40000000 0.00562000  -0.00562000 )
(   -1.40000000 -0.00993485 -0.00993485 )
(   -1.40000000 0.00993485  -0.00993485 )
(   -1.40000000 -0.05692210 -0.05692210 )
(   -1.40000000 0.05692210  -0.05692210 )
(   -1.40000000 -0.49497475 -0.49497475 )
(   -1.40000000 0.49497475  -0.49497475 )


);

blocks
(

// First level of blocks

hex (   3   2   0   1   19  18  16  17  )   background  (   20  40  27  )   simpleGrading   (   1   30  0.02    )
hex (   13  3   1   15  29  19  17  31  )   background  (   20  40  27  )   simpleGrading   (   1   30  0.02    )
hex (   12  13  15  14  28  29  31  30  )   background  (   20  40  27  )   simpleGrading   (   1   30  0.02    )
hex (   2   12  14  0   18  28  30  16  )   background  (   20  40  27  )   simpleGrading   (   1   30  0.02    )
hex (   5   4   2   3   21  20  18  19  )   background  (   20  40  27  )   simpleGrading   (   1   1   0.02    )
hex (   11  5   3   13  27  21  19  29  )   background  (   20  40  27  )   simpleGrading   (   1   1   0.02    )
hex (   10  11  13  12  26  27  29  28  )   background  (   20  40  27  )   simpleGrading   (   1   1   0.02    )
hex (   4   10  12  2   20  26  28  18  )   background  (   20  40  27  )   simpleGrading   (   1   1   0.02    )


// Second level of blocks

hex (   19  18  16  17  35  34  32  33  )   background  (   20  40  40  )   simpleGrading   (   1   30  1   )
hex (   29  19  17  31  45  35  33  47  )   background  (   20  40  40  )   simpleGrading   (   1   30  1   )
hex (   28  29  31  30  44  45  47  46  )   background  (   20  40  40  )   simpleGrading   (   1   30  1   )
hex (   18  28  30  16  34  44  46  32  )   background  (   20  40  40  )   simpleGrading   (   1   30  1   )
// hex  (   21  20  18  19  37  36  34  35  )   background  (   20  40  40  )   simpleGrading   (   1   1   1   )
// hex  (   27  21  19  29  43  37  35  45  )   background  (   20  40  40  )   simpleGrading   (   1   1   1   )
// hex  (   26  27  29  28  42  43  45  44  )   background  (   20  40  40  )   simpleGrading   (   1   1   1   )
// hex  (   20  26  28  18  36  42  44  34  )   background  (   20  40  40  )   simpleGrading   (   1   1   1   )
// hex  (   23  22  20  21  39  38  36  37  )   background  (   20  4   40  )   simpleGrading   (   1   1   1   )
// hex  (   25  23  21  27  41  39  37  43  )   background  (   20  4   40  )   simpleGrading   (   1   1   1   )
// hex  (   24  25  27  26  40  41  43  42  )   background  (   20  4   40  )   simpleGrading   (   1   1   1   )
// hex  (   22  24  26  20  38  40  42  36  )   background  (   20  4   40  )   simpleGrading   (   1   1   1   )
// hex  (   25  24  22  23  41  40  38  39  )   background  (   20  20  40  )   simpleGrading   (   1   1   1   )

// Third level of blocks

hex (   35  34  32  33  51  50  48  49  )   background  (   20  40  54  )   simpleGrading   (   1   30  50  )
hex (   45  35  33  47  61  51  49  63  )   background  (   20  40  54  )   simpleGrading   (   1   30  50  )
hex (   44  45  47  46  60  61  63  62  )   background  (   20  40  54  )   simpleGrading   (   1   30  50  )
hex (   34  44  46  32  50  60  62  48  )   background  (   20  40  54  )   simpleGrading   (   1   30  50  )
hex (   37  36  34  35  53  52  50  51  )   background  (   20  40  54  )   simpleGrading   (   1   1   50  )
hex (   43  37  35  45  59  53  51  61  )   background  (   20  40  54  )   simpleGrading   (   1   1   50  )
hex (   42  43  45  44  58  59  61  60  )   background  (   20  40  54  )   simpleGrading   (   1   1   50  )
hex (   36  42  44  34  52  58  60  50  )   background  (   20  40  54  )   simpleGrading   (   1   1   50  )
hex (   39  38  36  37  55  54  52  53  )   background  (   20  4   54  )   simpleGrading   (   1   1   50  )
hex (   41  39  37  43  57  55  53  59  )   background  (   20  4   54  )   simpleGrading   (   1   1   50  )
hex (   40  41  43  42  56  57  59  58  )   background  (   20  4   54  )   simpleGrading   (   1   1   50  )
hex (   38  40  42  36  54  56  58  52  )   background  (   20  4   54  )   simpleGrading   (   1   1   50  )
hex (   41  40  38  39  57  56  54  55  )   background  (   20  20  54  )   simpleGrading   (   1   1   50  )

);


edges
(

// FIRST x PLANE

arc 0   1   (   0.78000000  0.00000000  0.70000000  )
arc 1   15  (   0.78000000  0.70000000  0.00000000  )
arc 15  14  (   0.78000000  0.00000000  -0.70000000 )
arc 14  0   (   0.78000000  -0.70000000 0.00000000  )
arc 2   3   (   0.78000000  0.00000000  0.08050000  )
arc 3   13  (   0.78000000  0.08050000  0.00000000  )
arc 13  12  (   0.78000000  0.00000000  -0.08050000 )
arc 12  2   (   0.78000000  -0.08050000 0.00000000  )
arc 4   5   (   0.78000000  0.00000000  0.01405000  )
arc 5   11  (   0.78000000  0.01405000  0.00000000  )
arc 11  10  (   0.78000000  0.00000000  -0.01405000 )
arc 10  4   (   0.78000000  -0.01405000 0.00000000  )

// SECOND x PLANE

arc 16  17  (   0.08000000  0.00000000  0.70000000  )
arc 17  31  (   0.08000000  0.70000000  0.00000000  )
arc 31  30  (   0.08000000  0.00000000  -0.70000000 )
arc 30  16  (   0.08000000  -0.70000000 0.00000000  )
arc 18  19  (   0.08000000  0.00000000  0.08050000  )
arc 19  29  (   0.08000000  0.08050000  0.00000000  )
arc 29  28  (   0.08000000  0.00000000  -0.08050000 )
arc 28  18  (   0.08000000  -0.08050000 0.00000000  )
arc 20  21  (   0.08000000  0.00000000  0.01405000  )
arc 21  27  (   0.08000000  0.01405000  0.00000000  )
arc 27  26  (   0.08000000  0.00000000  -0.01405000 )
arc 26  20  (   0.08000000  -0.01405000 0.00000000  )

// THIRD x PLANE

arc 32  33  (   0.00000000  0.00000000  0.70000000  )
arc 33  47  (   0.00000000  0.70000000  0.00000000  )
arc 47  46  (   0.00000000  0.00000000  -0.70000000 )
arc 46  32  (   0.00000000  -0.70000000 0.00000000  )
arc 34  35  (   0.00000000  0.00000000  0.08050000  )
arc 35  45  (   0.00000000  0.08050000  0.00000000  )
arc 45  44  (   0.00000000  0.00000000  -0.08050000 )
arc 44  34  (   0.00000000  -0.08050000 0.00000000  )
arc 36  37  (   0.00000000  0.00000000  0.01405000  )
arc 37  43  (   0.00000000  0.01405000  0.00000000  )
arc 43  42  (   0.00000000  0.00000000  -0.01405000 )
arc 42  36  (   0.00000000  -0.01405000 0.00000000  )

// FOURTH x PLANE

arc 48  49  (   -1.40000000 0.00000000  0.70000000  )
arc 49  63  (   -1.40000000 0.70000000  0.00000000  )
arc 63  62  (   -1.40000000 0.00000000  -0.70000000 )
arc 62  48  (   -1.40000000 -0.70000000 0.00000000  )
arc 50  51  (   -1.40000000 0.00000000  0.08050000  )
arc 51  61  (   -1.40000000 0.08050000  0.00000000  )
arc 61  60  (   -1.40000000 0.00000000  -0.08050000 )
arc 60  50  (   -1.40000000 -0.08050000 0.00000000  )
arc 52  53  (   -1.40000000 0.00000000  0.01405000  )
arc 53  59  (   -1.40000000 0.01405000  0.00000000  )
arc 59  58  (   -1.40000000 0.00000000  -0.01405000 )
arc 58  52  (   -1.40000000 -0.01405000 0.00000000  )

);


boundary
(
    inlet
    {
        type patch;
        faces
        (
            (   0   1   3   2   )
            (   1   15  13  3   )
            (   15  14  12  13  )
            (   14  0   2   12  )
            (   2   3   5   4   )
            (   3   13  11  5   )
            (   13  12  10  11  )
            (   12  2   4   10  )
        );
    }

    outlet
    {
        type patch;
        faces
        (
            (   51  50  48  49  )
            (   61  51  49  63  )
            (   60  61  63  62  )
            (   50  60  62  48  )
            (   53  52  50  51  )
            (   59  53  51  61  )
            (   58  59  61  60  )
            (   52  58  60  50  )
            (   55  54  52  53  )
            (   57  55  53  59  )
            (   56  57  59  58  )
            (   54  56  58  52  )
            (   57  56  54  55  )
        );
    }

    farfield
    {
        type patch;
        faces
        (
            (   1   0   16  17  )
            (   15  1   17  31  )
            (   14  15  31  30  )
            (   0   14  30  16  )

            (   17  16  32  33  )
            (   31  17  33  47  )
            (   30  31  47  46  )
            (   16  30  46  32  )

            (   33  32  48  49  )
            (   47  33  49  63  )
            (   46  47  63  62  )
            (   32  46  62  48  )
        );
    }

    shaft
    {
        type wall;
        faces
        (
            (   4   5   21  20  )
            (   5   11  27  21  )
            (   11  10  26  27  )
            (   10  4   20  26  )

//          (   23  22  20  21  )
//          (   25  23  21  27  )
//          (   24  25  27  26  )
//          (   22  24  26  20  )
//          (   25  24  22  23  )
        );
    }
);



mergePatchPairs
(
);

// * * * * * * * * * * * * * * * * * * * * * * * * * * * * * * * * * * * * * //

