/*--------------------------------*- C++ -*----------------------------------*\
| =========                 |                                                 |
| \\      /  F ield         | OpenFOAM Extend Project: Open Source CFD        |
|  \\    /   O peration     | Version:  1.6-ext                               |
|   \\  /    A nd           | Web:      www.extend-project.de                 |
|    \\/     M anipulation  |                                                 |
\*---------------------------------------------------------------------------*/
FoamFile
{
    version     2.0;
    format      ascii;
    class       dictionary;
    object      fvSolution;
}
// * * * * * * * * * * * * * * * * * * * * * * * * * * * * * * * * * * * * * //

solvers
{
    T
    {
        solver          amgSolver;
        cycle           W-cycle;
        policy          AAMG;
        nPreSweeps      0;
        nPostSweeps     2;
        groupSize       2;
        minCoarseEqns   20;
        nMaxLevels      100;
        scale           on;
        smoother        ILU;

        tolerance        1e-8;
        relTol           0.01;
        minIter          1;
    }
//     T
//     {
//         solver           PCG;
//         preconditioner   DIC;
//         tolerance        1e-8;
//         relTol           0.01;
//         minIter          1;
//     }
}

SIMPLE
{
    nNonOrthogonalCorrectors 0;
}



// ************************************************************************* //
