/*--------------------------------*- C++ -*----------------------------------*\
| =========                 |                                                 |
| \\      /  F ield         | OpenFOAM: The Open Source CFD Toolbox           |
|  \\    /   O peration     | Version:  1.4                                   |
|   \\  /    A nd           | Web:      http://www.openfoam.org               |
|    \\/     M anipulation  |                                                 |
\*---------------------------------------------------------------------------*/

FoamFile
{
    version         2.0;
    format          ascii;
    class           dictionary;
    object          oversetMeshDict;
}

// * * * * * * * * * * * * * * * * * * * * * * * * * * * * * * * * * * * * * //

interpolation
{
    type injection;
}

// Names or patches that determine hole cells
holePatches  ( hull );

regions
(
    cellRegion0
    {
        // Donor regions
        donorRegions ( cellRegion1 );

        fringe
        {
            type        manual;
            holes       backHole;
            acceptors   backFringe;
        }
    }
    cellRegion1
    {
        donorRegions ( cellRegion0 );

        fringe
        {
            type faceCells;
            patches ( imin_farfield imax_farfield kmin_farfield );
        }
    }
);


// ************************************************************************* //
