/*--------------------------------*- C++ -*----------------------------------*\
| =========                 |                                                 |
| \\      /  F ield         | OpenFOAM: The Open Source CFD Toolbox           |
|  \\    /   O peration     | Version:  1.4                                   |
|   \\  /    A nd           | Web:      http://www.openfoam.org               |
|    \\/     M anipulation  |                                                 |
\*---------------------------------------------------------------------------*/

FoamFile
{
    version         2.0;
    format          ascii;
    class           volScalarField;
    object          T;
}

// * * * * * * * * * * * * * * * * * * * * * * * * * * * * * * * * * * * * * //


dimensions [0 0 0 0 1 0 0];

internalField uniform 0;

boundaryField
{
    oversetFaces
    {
        type overset;
        value uniform 0;
        coupledFringe yes;

        setHoleCellValue  yes;
        holeCellValue     0;
    }
    left
    {
        type fixedValue;
        value uniform 1;
    }
    right
    {
        type fixedValue;
        value uniform 2;
    }

    top
    {
        type zeroGradient;
    }

    bottom
    {
        type zeroGradient;
    }

    frontAndBack
    {
        type empty;
    }
}


// ************************************************************************* //
