/*--------------------------------*- C++ -*----------------------------------*\
| =========                 |                                                 |
| \\      /  F ield         | OpenFOAM: The Open Source CFD Toolbox           |
|  \\    /   O peration     | Version:  1.4                                   |
|   \\  /    A nd           | Web:      http://www.openfoam.org               |
|    \\/     M anipulation  |                                                 |
\*---------------------------------------------------------------------------*/
FoamFile
{
    version         2.0;
    format          ascii;
    class           dictionary;
    object          oversetMeshDict;
}
// * * * * * * * * * * * * * * * * * * * * * * * * * * * * * * * * * * * * * //

interpolation
{
    type injection;
}

holePatches  ();

regions
(
    left
    {
        index 0;

        // Donor regions
        donorRegions ( right );

        fringe
        {
            type faceCells;
            patches ( leftEnd );
        }
    }

    right
    {
        index 1;

        donorRegions ( left );

        fringe
        {
            type faceCells;
            patches ( rightStart );
        }
    }
);


// ************************************************************************* //
