/*--------------------------------*- C++ -*----------------------------------*\
| =========                 |                                                 |
| \\      /  F ield         | OpenFOAM Extend Project: Open Source CFD        |
|  \\    /   O peration     | Version:  1.6-ext                               |
|   \\  /    A nd           | Web:      www.extend-project.de                 |
|    \\/     M anipulation  |                                                 |
\*---------------------------------------------------------------------------*/
FoamFile
{
    version     2.0;
    format      ascii;
    class       dictionary;
    object      dynamicMeshDict;
}
// * * * * * * * * * * * * * * * * * * * * * * * * * * * * * * * * * * * * * //

// dynamicFvMesh   staticFvMesh;
dynamicFvMesh   regionSolidBodyMotionFvMesh;

regionSolidBodyMotionFvMeshCoeffs
{
    motionFunctions
    (
        {
            solidBodyMotionFunction     translation;
            translationCoeffs
            {
                velocity (0 0 0);
            }
        }

        {
//             solidBodyMotionFunction     translation;
//             translationCoeffs
//             {
//                 velocity (0.1 0 0);
//             }

            solidBodyMotionFunction     linearOscillation;
            linearOscillationCoeffs
            {
                amplitude    (0.5 0 0);
                period       2.5;
            }
        }
    );
}

// ************************************************************************* //
