/*--------------------------------*- C++ -*----------------------------------*\
| =========                 |                                                 |
| \\      /  F ield         | foam-extend: Open Source CFD                    |
|  \\    /   O peration     | Version:  1.4                                   |
|   \\  /    A nd           | Web:      http://www.openfoam.org               |
|    \\/     M anipulation  | For copyright notice see file Copyright         |
\*---------------------------------------------------------------------------*/

FoamFile
{
    version         2.0;
    format          ascii;
    class           volScalarField;
    object          alpha1;
}

// * * * * * * * * * * * * * * * * * * * * * * * * * * * * * * * * * * * * * //

dimensions [0 0 0 0 0 0 0];

internalField uniform 0;

boundaryField
{
    oversetFaces
    {
        type overset;
        value uniform 0;
        coupledFringe yes;

        setHoleCellValue  yes;
        holeCellValue     0;
    }
    bottom
    {
        type zeroGradient;
    }
    inlet-air
    {
        type fixedValue;
        value uniform 0;
    }
    inlet-water
    {
        type fixedValue;
        value uniform 1;
    }
    outlet
    {
        type inletOutlet;
        inletValue uniform 0;
        value uniform 0;
    }
    side
    {
        type            zeroGradient;
    }
    top
    {
        type            zeroGradient;
    }
    hull
    {
        type            zeroGradient;
    }
    imax_farfield
    {
        type            zeroGradient;
    }
    imin_farfield
    {
        type            zeroGradient;
    }
    kmin_farfield
    {
        type            zeroGradient;
    }
    symmetry
    {
        type            symmetryPlane;
    }
}


// ************************************************************************* //
