/*--------------------------------*- C++ -*----------------------------------*\
| =========                 |                                                 |
| \\      /  F ield         | OpenFOAM Extend Project: Open Source CFD        |
|  \\    /   O peration     | Version:  1.6-ext                               |
|   \\  /    A nd           | Web:      www.extend-project.de                 |
|    \\/     M anipulation  |                                                 |
\*---------------------------------------------------------------------------*/
FoamFile
{
    version     2.0;
    format      ascii;
    class       dictionary;
    object      fvSchemes;
}
// * * * * * * * * * * * * * * * * * * * * * * * * * * * * * * * * * * * * * //

ddtSchemes
{
    default Euler;
}

gradSchemes
{
    default         Gauss linear;
}

divSchemes
{
    default         none;
    div(rho*phi,U)  Gauss vanLeerDC;
//      div(rho*phi,U)  Gauss upwind;

    div(phi,alpha)  Gauss vanLeer01;
//     div(phi,alpha)  Gauss upwind;
//     div(phirb,alpha) Gauss vofCompression;
    div(phirb,alpha) Gauss interfaceCompression;
}

laplacianSchemes
{
    default         Gauss linear limited 0.5;
}

interpolationSchemes
{
    default         linear;
    interpolate(HbyA) linear;
}

snGradSchemes
{
    default         limited 0.5;
}

fluxRequired
{
    pd;
    pcorr;

    // potentialOversetFoam
    p;
}

// ************************************************************************* //
